
**** 05/03/15 22:21:44 ********* PSpice 9.2 (Mar 2000) ******** ID# 0 ********

 ** Profile: "SCHEMATIC1-t"  [ F:\Users\ROOT\Documents\orcad\elecdigital\problem1 - asli\p2-schematic1-t.sim ] 


 ****     CIRCUIT DESCRIPTION


******************************************************************************




** Creating circuit file "p2-schematic1-t.sim.cir" 
** WARNING: THIS AUTOMATICALLY GENERATED FILE MAY BE OVERWRITTEN BY SUBSEQUENT SIMULATIONS

*Libraries: 
* Local Libraries :
.LIB ".\p2.lib" 
* From [PSPICE NETLIST] section of F:\Program Files\Orcad\PSpice\PSpice.ini file:
.lib "nom.lib" 

*Analysis directives: 
.TRAN  0 1ms 0 .01 
.PROBE V(*) I(*) W(*) D(*) NOISE(*) 
.INC ".\p2-SCHEMATIC1.net" 



**** INCLUDING p2-SCHEMATIC1.net ****
* source P2
C_C2         0 N14083  100p  
M_M6         N09421 N13783 0 0 Mbreakn           
C_C1         0 N03164  100p  
M_M15         N14083 N03164 N14091 N14091 Mbreakp           
M_M14         N03164 N09421 N08874 N08874 Mbreakp           
V_V1         N13771 0 5Vdc
M_M7         N03164 N09421 0 0 Mbreakn           
V_V2         N08874 0 5Vdc
C_C0         0 N09421  100p  
M_M8         N14083 N03164 0 0 Mbreakn           
M_M13         N09421 N13783 N13771 N13771 Mbreakp           
V_V3         N14091 0 5Vdc

**** RESUMING p2-schematic1-t.sim.cir ****
.END

ERROR -- Node N13783 is floating