
**** 05/01/15 21:37:46 ********* PSpice 9.2 (Mar 2000) ******** ID# 0 ********

 ** Profile: "SCHEMATIC1-t"  [ F:\Users\ROOT\Documents\orcad\elecdigital\problem1\p1-schematic1-t.sim ] 


 ****     CIRCUIT DESCRIPTION


******************************************************************************




** Creating circuit file "p1-schematic1-t.sim.cir" 
** WARNING: THIS AUTOMATICALLY GENERATED FILE MAY BE OVERWRITTEN BY SUBSEQUENT SIMULATIONS

*Libraries: 
* Local Libraries :
* From [PSPICE NETLIST] section of F:\Program Files\Orcad\PSpice\PSpice.ini file:
.lib "nom.lib" 

*Analysis directives: 
.TRAN  0 1000ns 0 
.PROBE V(*) I(*) W(*) D(*) NOISE(*) 
.INC ".\p1-SCHEMATIC1.net" 



**** INCLUDING p1-SCHEMATIC1.net ****
* source P1
X_M1         N00305 N00175 N00095 PHP125/PLP
V_V1         N00305 0 10Vdc
V_V1         N00793 0 10Vdc
$
ERROR -- Name "V_V1" is defined more than once
X_M3         N00095 N00175 0 PHN110/PLP
--------------------$
ERROR -- Expecting keyword STIMULUS, saw N00175.

R_R1         0 N00175  1k  
X_M1         N00793 N00789 N00777 PHP125/PLP
--------------------------------------------$
ERROR -- Name "X_M1" is defined more than once
X_M3         N00777 N00789 0 PHN110/PLP
R_R1         0 N00789  1k  
$
ERROR -- Name "R_R1" is defined more than once

**** RESUMING p1-schematic1-t.sim.cir ****
.END
